
     RDKit          3D

 62 67  0  0  0  0  0  0  0  0999 V2000
   -4.2555   -3.1029   13.5707 C   0  0  0  0  0  0  0  0  0  0  0  0
   -3.8740   -2.3535   14.7166 O   0  0  0  0  0  0  0  0  0  0  0  0
   -2.5261   -2.1057   14.8053 C   0  0  0  0  0  0  0  0  0  0  0  0
   -1.7497   -2.8673   15.6804 C   0  0  0  0  0  0  0  0  0  0  0  0
   -0.3863   -2.6106   15.8150 C   0  0  0  0  0  0  0  0  0  0  0  0
    0.2220   -1.5829   15.0890 C   0  0  0  0  0  0  0  0  0  0  0  0
    1.5930   -1.3491   15.3060 N   0  0  0  0  0  0  0  0  0  0  0  0
    2.5452   -0.4689   14.7536 C   0  0  0  0  0  0  0  0  0  0  0  0
    2.2178    0.3551   13.7190 N   0  0  0  0  0  0  0  0  0  0  0  0
    3.1227    1.2406   13.2181 C   0  0  0  0  0  0  0  0  0  0  0  0
    4.4207    1.3039   13.7175 C   0  0  0  0  0  0  0  0  0  0  0  0
    4.7482    0.4921   14.7654 N   0  0  0  0  0  0  0  0  0  0  0  0
    5.8898    0.3836   15.5035 C   0  0  0  0  0  0  0  0  0  0  0  0
    5.5715   -0.5089   16.5177 C   0  0  0  0  0  0  0  0  0  0  0  0
    4.3818   -1.0543   16.3920 N   0  0  0  0  0  0  0  0  0  0  0  0
    3.8330   -0.4170   15.3252 C   0  0  0  0  0  0  0  0  0  0  0  0
    2.6564    2.1560   12.1340 C   0  0  0  0  0  0  0  0  0  0  0  0
    3.5566    2.6280   11.1666 C   0  0  0  0  0  0  0  0  0  0  0  0
    3.1294    3.4499   10.1277 C   0  0  0  0  0  0  0  0  0  0  0  0
    1.7879    3.8078   10.0318 C   0  0  0  0  0  0  0  0  0  0  0  0
    0.8660    3.3707   10.9895 C   0  0  0  0  0  0  0  0  0  0  0  0
    1.3140    2.5576   12.0419 C   0  0  0  0  0  0  0  0  0  0  0  0
   -0.5783    3.7648   10.8956 C   0  0  0  0  0  0  0  0  0  0  0  0
   -1.2780    3.6594    9.8925 O   0  0  0  0  0  0  0  0  0  0  0  0
   -1.0343    4.2553   12.0485 N   0  0  0  0  0  0  0  0  0  0  0  0
   -2.3943    4.7285   12.2897 C   0  0  0  0  0  0  0  0  0  0  0  0
   -2.6544    5.5820   13.3553 C   0  0  0  0  0  0  0  0  0  0  0  0
   -3.9490    6.0325   13.5849 C   0  0  0  0  0  0  0  0  0  0  0  0
   -4.9835    5.6294   12.7489 C   0  0  0  0  0  0  0  0  0  0  0  0
   -4.7235    4.7759   11.6833 C   0  0  0  0  0  0  0  0  0  0  0  0
   -3.4289    4.3254   11.4537 C   0  0  0  0  0  0  0  0  0  0  0  0
   -6.3808    6.1155   12.9967 C   0  0  0  0  0  0  0  0  0  0  0  0
   -7.4427    5.4157   12.6869 N   0  0  0  0  0  0  0  0  0  0  0  0
   -8.5101    6.1905   13.0642 N   0  0  0  0  0  0  0  0  0  0  0  0
   -8.0145    7.3480   13.5959 N   0  0  0  0  0  0  0  0  0  0  0  0
   -6.6463    7.2766   13.5417 N   0  0  0  0  0  0  0  0  0  0  0  0
   -0.5664   -0.8256   14.2115 C   0  0  0  0  0  0  0  0  0  0  0  0
   -1.9389   -1.0760   14.0580 C   0  0  0  0  0  0  0  0  0  0  0  0
   -2.6991   -0.3052   13.2021 O   0  0  0  0  0  0  0  0  0  0  0  0
   -2.0020    0.6746   12.5251 C   0  0  0  0  0  0  0  0  0  0  0  0
   -3.7528   -4.0708   13.5508 H   0  0  0  0  0  0  0  0  0  0  0  0
   -4.0179   -2.5675   12.6505 H   0  0  0  0  0  0  0  0  0  0  0  0
   -5.3306   -3.2808   13.5889 H   0  0  0  0  0  0  0  0  0  0  0  0
   -2.2100   -3.6528   16.2607 H   0  0  0  0  0  0  0  0  0  0  0  0
    0.1911   -3.2101   16.5029 H   0  0  0  0  0  0  0  0  0  0  0  0
    2.0246   -1.8858   16.0475 H   0  0  0  0  0  0  0  0  0  0  0  0
    5.1701    2.0030   13.3719 H   0  0  0  0  0  0  0  0  0  0  0  0
    6.7656    0.9739   15.2897 H   0  0  0  0  0  0  0  0  0  0  0  0
    6.2089   -0.8330   17.3301 H   0  0  0  0  0  0  0  0  0  0  0  0
    4.5934    2.3309   11.2002 H   0  0  0  0  0  0  0  0  0  0  0  0
    3.8342    3.7939    9.3845 H   0  0  0  0  0  0  0  0  0  0  0  0
    1.4564    4.4350    9.2166 H   0  0  0  0  0  0  0  0  0  0  0  0
    0.6053    2.2130   12.7811 H   0  0  0  0  0  0  0  0  0  0  0  0
   -0.4948    4.3595   12.8959 H   0  0  0  0  0  0  0  0  0  0  0  0
   -1.8489    5.8959   14.0061 H   0  0  0  0  0  0  0  0  0  0  0  0
   -4.1515    6.6970   14.4145 H   0  0  0  0  0  0  0  0  0  0  0  0
   -5.5289    4.4620   11.0325 H   0  0  0  0  0  0  0  0  0  0  0  0
   -3.2264    3.6609   10.6241 H   0  0  0  0  0  0  0  0  0  0  0  0
   -0.1547   -0.0168   13.6337 H   0  0  0  0  0  0  0  0  0  0  0  0
   -2.6851    1.2257   11.8787 H   0  0  0  0  0  0  0  0  0  0  0  0
   -1.2218    0.2131   11.9198 H   0  0  0  0  0  0  0  0  0  0  0  0
   -1.5485    1.3591   13.2420 H   0  0  0  0  0  0  0  0  0  0  0  0
  1  2  1  0
  1 41  1  0
  1 42  1  0
  1 43  1  0
  2  3  1  0
  3  4  2  0
  3 38  1  0
  4  5  1  0
  4 44  1  0
  5  6  2  0
  5 45  1  0
  6  7  1  0
  6 37  1  0
  7  8  1  0
  7 46  1  0
  8  9  2  0
  8 16  1  0
  9 10  1  0
 10 11  2  0
 10 17  1  0
 11 12  1  0
 11 47  1  0
 12 13  1  0
 12 16  1  0
 13 14  2  0
 13 48  1  0
 14 15  1  0
 14 49  1  0
 15 16  2  0
 17 18  2  0
 17 22  1  0
 18 19  1  0
 18 50  1  0
 19 20  2  0
 19 51  1  0
 20 21  1  0
 20 52  1  0
 21 22  2  0
 21 23  1  0
 22 53  1  0
 23 24  2  0
 23 25  1  0
 25 26  1  0
 25 54  1  0
 26 27  2  0
 26 31  1  0
 27 28  1  0
 27 55  1  0
 28 29  2  0
 28 56  1  0
 29 30  1  0
 29 32  1  0
 30 31  2  0
 30 57  1  0
 31 58  1  0
 32 36  2  0
 32 33  1  0
 33 34  1  0
 34 35  2  0
 35 36  1  0
 37 38  2  0
 37 59  1  0
 38 39  1  0
 39 40  1  0
 40 60  1  0
 40 61  1  0
 40 62  1  0
M  CHG  1  33  -1
M  END
$$$$

     RDKit          3D

 62 67  0  0  0  0  0  0  0  0999 V2000
   -2.7750   -5.4799   14.7565 C   0  0  0  0  0  0  0  0  0  0  0  0
   -1.4267   -5.8987   14.7515 O   0  0  0  0  0  0  0  0  0  0  0  0
   -0.4848   -4.8770   14.5321 C   0  0  0  0  0  0  0  0  0  0  0  0
   -0.8084   -3.5323   14.4125 C   0  0  0  0  0  0  0  0  0  0  0  0
    0.1671   -2.5834   14.2002 C   0  0  0  0  0  0  0  0  0  0  0  0
    1.5023   -2.9387   14.0974 C   0  0  0  0  0  0  0  0  0  0  0  0
    2.5110   -1.9781   13.8739 N   0  0  0  0  0  0  0  0  0  0  0  0
    2.3966   -0.5903   13.7822 C   0  0  0  0  0  0  0  0  0  0  0  0
    1.2497    0.0416   13.9300 N   0  0  0  0  0  0  0  0  0  0  0  0
    1.2464    1.4114   13.8282 C   0  0  0  0  0  0  0  0  0  0  0  0
    2.3774    2.1415   13.5879 C   0  0  0  0  0  0  0  0  0  0  0  0
    3.5982    1.5102   13.4260 N   0  0  0  0  0  0  0  0  0  0  0  0
    4.9083    1.8599   13.1838 C   0  0  0  0  0  0  0  0  0  0  0  0
    5.6267    0.6839   13.1492 C   0  0  0  0  0  0  0  0  0  0  0  0
    4.8342   -0.3794   13.3582 N   0  0  0  0  0  0  0  0  0  0  0  0
    3.6068    0.1213   13.5250 C   0  0  0  0  0  0  0  0  0  0  0  0
   -0.0466    2.0987   14.0087 C   0  0  0  0  0  0  0  0  0  0  0  0
   -1.0565    1.4924   14.7529 C   0  0  0  0  0  0  0  0  0  0  0  0
   -2.2686    2.1202   14.9435 C   0  0  0  0  0  0  0  0  0  0  0  0
   -2.5022    3.3599   14.3882 C   0  0  0  0  0  0  0  0  0  0  0  0
   -1.5211    3.9837   13.6221 C   0  0  0  0  0  0  0  0  0  0  0  0
   -0.3024    3.3461   13.4474 C   0  0  0  0  0  0  0  0  0  0  0  0
   -1.7297    5.3198   13.0121 C   0  0  0  0  0  0  0  0  0  0  0  0
   -0.7665    6.0432   12.8129 O   0  0  0  0  0  0  0  0  0  0  0  0
   -3.0344    5.6833   12.6741 N   0  0  0  0  0  0  0  0  0  0  0  0
   -3.4538    6.9024   12.1071 C   0  0  0  0  0  0  0  0  0  0  0  0
   -4.8024    7.1041   11.8097 C   0  0  0  0  0  0  0  0  0  0  0  0
   -5.2335    8.2903   11.2666 C   0  0  0  0  0  0  0  0  0  0  0  0
   -4.3351    9.3215   10.9984 C   0  0  0  0  0  0  0  0  0  0  0  0
   -2.9879    9.1206   11.2917 C   0  0  0  0  0  0  0  0  0  0  0  0
   -2.5590    7.9349   11.8350 C   0  0  0  0  0  0  0  0  0  0  0  0
   -4.7956   10.5858   10.4256 C   0  0  0  0  0  0  0  0  0  0  0  0
   -6.1429   10.8168   10.1346 N   0  0  0  0  0  0  0  0  0  0  0  0
   -6.0035   12.0099    9.6800 N   0  0  0  0  0  0  0  0  0  0  0  0
   -4.7875   12.4545    9.6838 N   0  0  0  0  0  0  0  0  0  0  0  0
   -3.9136   11.6320   10.1411 N   0  0  0  0  0  0  0  0  0  0  0  0
    1.8404   -4.2843   14.2149 C   0  0  0  0  0  0  0  0  0  0  0  0
    0.8824   -5.2630   14.4313 C   0  0  0  0  0  0  0  0  0  0  0  0
    1.1733   -6.6297   14.5584 O   0  0  0  0  0  0  0  0  0  0  0  0
    2.5445   -6.9597   14.4907 C   0  0  0  0  0  0  0  0  0  0  0  0
   -3.4103   -6.3570   14.8869 H   0  0  0  0  0  0  0  0  0  0  0  0
   -3.0228   -5.0042   13.8065 H   0  0  0  0  0  0  0  0  0  0  0  0
   -2.9500   -4.7927   15.5854 H   0  0  0  0  0  0  0  0  0  0  0  0
   -1.8342   -3.2214   14.4894 H   0  0  0  0  0  0  0  0  0  0  0  0
   -0.0966   -1.5476   14.1087 H   0  0  0  0  0  0  0  0  0  0  0  0
    3.4590   -2.3279   13.7603 H   0  0  0  0  0  0  0  0  0  0  0  0
    2.3529    3.2132   13.5483 H   0  0  0  0  0  0  0  0  0  0  0  0
    5.2760    2.8640   13.0503 H   0  0  0  0  0  0  0  0  0  0  0  0
    6.6915    0.6049   12.9783 H   0  0  0  0  0  0  0  0  0  0  0  0
   -0.8701    0.5271   15.1896 H   0  0  0  0  0  0  0  0  0  0  0  0
   -3.0340    1.6425   15.5332 H   0  0  0  0  0  0  0  0  0  0  0  0
   -3.4377    3.8603   14.5647 H   0  0  0  0  0  0  0  0  0  0  0  0
    0.4471    3.8342   12.8517 H   0  0  0  0  0  0  0  0  0  0  0  0
   -3.7562    4.9848   12.8038 H   0  0  0  0  0  0  0  0  0  0  0  0
   -5.5058    6.3161   12.0143 H   0  0  0  0  0  0  0  0  0  0  0  0
   -6.2748    8.4399   11.0416 H   0  0  0  0  0  0  0  0  0  0  0  0
   -2.2884    9.9116   11.0862 H   0  0  0  0  0  0  0  0  0  0  0  0
   -1.5191    7.7847   12.0598 H   0  0  0  0  0  0  0  0  0  0  0  0
    2.8748   -4.5559   14.1341 H   0  0  0  0  0  0  0  0  0  0  0  0
    3.0909   -6.4547   15.2886 H   0  0  0  0  0  0  0  0  0  0  0  0
    2.9483   -6.6828   13.5158 H   0  0  0  0  0  0  0  0  0  0  0  0
    2.6489   -8.0377   14.6208 H   0  0  0  0  0  0  0  0  0  0  0  0
  1  2  1  0
  1 41  1  0
  1 42  1  0
  1 43  1  0
  2  3  1  0
  3  4  2  0
  3 38  1  0
  4  5  1  0
  4 44  1  0
  5  6  2  0
  5 45  1  0
  6  7  1  0
  6 37  1  0
  7  8  1  0
  7 46  1  0
  8  9  2  0
  8 16  1  0
  9 10  1  0
 10 11  2  0
 10 17  1  0
 11 12  1  0
 11 47  1  0
 12 13  1  0
 12 16  1  0
 13 14  2  0
 13 48  1  0
 14 15  1  0
 14 49  1  0
 15 16  2  0
 17 18  2  0
 17 22  1  0
 18 19  1  0
 18 50  1  0
 19 20  2  0
 19 51  1  0
 20 21  1  0
 20 52  1  0
 21 22  2  0
 21 23  1  0
 22 53  1  0
 23 24  2  0
 23 25  1  0
 25 26  1  0
 25 54  1  0
 26 27  2  0
 26 31  1  0
 27 28  1  0
 27 55  1  0
 28 29  2  0
 28 56  1  0
 29 30  1  0
 29 32  1  0
 30 31  2  0
 30 57  1  0
 31 58  1  0
 32 36  2  0
 32 33  1  0
 33 34  1  0
 34 35  2  0
 35 36  1  0
 37 38  2  0
 37 59  1  0
 38 39  1  0
 39 40  1  0
 40 60  1  0
 40 61  1  0
 40 62  1  0
M  CHG  1  33  -1
M  END
$$$$

     RDKit          3D

 62 67  0  0  0  0  0  0  0  0999 V2000
   -4.2555   -3.1029   13.5707 C   0  0  0  0  0  0  0  0  0  0  0  0
   -3.8740   -2.3535   14.7166 O   0  0  0  0  0  0  0  0  0  0  0  0
   -2.5261   -2.1057   14.8053 C   0  0  0  0  0  0  0  0  0  0  0  0
   -1.7497   -2.8673   15.6804 C   0  0  0  0  0  0  0  0  0  0  0  0
   -0.3863   -2.6106   15.8150 C   0  0  0  0  0  0  0  0  0  0  0  0
    0.2220   -1.5829   15.0890 C   0  0  0  0  0  0  0  0  0  0  0  0
    1.5930   -1.3491   15.3060 N   0  0  0  0  0  0  0  0  0  0  0  0
    2.5452   -0.4689   14.7536 C   0  0  0  0  0  0  0  0  0  0  0  0
    2.2178    0.3551   13.7190 N   0  0  0  0  0  0  0  0  0  0  0  0
    3.1227    1.2406   13.2181 C   0  0  0  0  0  0  0  0  0  0  0  0
    4.4207    1.3039   13.7175 C   0  0  0  0  0  0  0  0  0  0  0  0
    4.7482    0.4921   14.7654 N   0  0  0  0  0  0  0  0  0  0  0  0
    5.8898    0.3836   15.5035 C   0  0  0  0  0  0  0  0  0  0  0  0
    5.5715   -0.5089   16.5177 C   0  0  0  0  0  0  0  0  0  0  0  0
    4.3818   -1.0543   16.3920 N   0  0  0  0  0  0  0  0  0  0  0  0
    3.8330   -0.4170   15.3252 C   0  0  0  0  0  0  0  0  0  0  0  0
    2.6564    2.1560   12.1340 C   0  0  0  0  0  0  0  0  0  0  0  0
    3.5566    2.6280   11.1666 C   0  0  0  0  0  0  0  0  0  0  0  0
    3.1294    3.4499   10.1277 C   0  0  0  0  0  0  0  0  0  0  0  0
    1.7879    3.8078   10.0318 C   0  0  0  0  0  0  0  0  0  0  0  0
    0.8660    3.3707   10.9895 C   0  0  0  0  0  0  0  0  0  0  0  0
    1.3140    2.5576   12.0419 C   0  0  0  0  0  0  0  0  0  0  0  0
   -0.5783    3.7648   10.8956 C   0  0  0  0  0  0  0  0  0  0  0  0
   -1.2780    3.6594    9.8925 O   0  0  0  0  0  0  0  0  0  0  0  0
   -1.0343    4.2553   12.0485 N   0  0  0  0  0  0  0  0  0  0  0  0
   -2.3943    4.7285   12.2897 C   0  0  0  0  0  0  0  0  0  0  0  0
   -2.6544    5.5820   13.3553 C   0  0  0  0  0  0  0  0  0  0  0  0
   -3.9490    6.0325   13.5849 C   0  0  0  0  0  0  0  0  0  0  0  0
   -4.9835    5.6294   12.7489 C   0  0  0  0  0  0  0  0  0  0  0  0
   -4.7235    4.7759   11.6833 C   0  0  0  0  0  0  0  0  0  0  0  0
   -3.4289    4.3254   11.4537 C   0  0  0  0  0  0  0  0  0  0  0  0
   -6.3808    6.1155   12.9967 C   0  0  0  0  0  0  0  0  0  0  0  0
   -7.4427    5.4157   12.6869 N   0  0  0  0  0  0  0  0  0  0  0  0
   -8.5101    6.1905   13.0642 N   0  0  0  0  0  0  0  0  0  0  0  0
   -8.0145    7.3480   13.5959 N   0  0  0  0  0  0  0  0  0  0  0  0
   -6.6463    7.2766   13.5417 N   0  0  0  0  0  0  0  0  0  0  0  0
   -0.5664   -0.8256   14.2115 C   0  0  0  0  0  0  0  0  0  0  0  0
   -1.9389   -1.0760   14.0580 C   0  0  0  0  0  0  0  0  0  0  0  0
   -2.6991   -0.3052   13.2021 O   0  0  0  0  0  0  0  0  0  0  0  0
   -2.0020    0.6746   12.5251 C   0  0  0  0  0  0  0  0  0  0  0  0
   -3.7528   -4.0708   13.5508 H   0  0  0  0  0  0  0  0  0  0  0  0
   -4.0179   -2.5675   12.6505 H   0  0  0  0  0  0  0  0  0  0  0  0
   -5.3306   -3.2808   13.5889 H   0  0  0  0  0  0  0  0  0  0  0  0
   -2.2100   -3.6528   16.2607 H   0  0  0  0  0  0  0  0  0  0  0  0
    0.1911   -3.2101   16.5029 H   0  0  0  0  0  0  0  0  0  0  0  0
    2.0246   -1.8858   16.0475 H   0  0  0  0  0  0  0  0  0  0  0  0
    5.1701    2.0030   13.3719 H   0  0  0  0  0  0  0  0  0  0  0  0
    6.7656    0.9739   15.2897 H   0  0  0  0  0  0  0  0  0  0  0  0
    6.2089   -0.8330   17.3301 H   0  0  0  0  0  0  0  0  0  0  0  0
    4.5934    2.3309   11.2002 H   0  0  0  0  0  0  0  0  0  0  0  0
    3.8342    3.7939    9.3845 H   0  0  0  0  0  0  0  0  0  0  0  0
    1.4564    4.4350    9.2166 H   0  0  0  0  0  0  0  0  0  0  0  0
    0.6053    2.2130   12.7811 H   0  0  0  0  0  0  0  0  0  0  0  0
   -0.4948    4.3595   12.8959 H   0  0  0  0  0  0  0  0  0  0  0  0
   -1.8489    5.8959   14.0061 H   0  0  0  0  0  0  0  0  0  0  0  0
   -4.1515    6.6970   14.4145 H   0  0  0  0  0  0  0  0  0  0  0  0
   -5.5289    4.4620   11.0325 H   0  0  0  0  0  0  0  0  0  0  0  0
   -3.2264    3.6609   10.6241 H   0  0  0  0  0  0  0  0  0  0  0  0
   -0.1547   -0.0168   13.6337 H   0  0  0  0  0  0  0  0  0  0  0  0
   -2.6851    1.2257   11.8787 H   0  0  0  0  0  0  0  0  0  0  0  0
   -1.2218    0.2131   11.9198 H   0  0  0  0  0  0  0  0  0  0  0  0
   -1.5485    1.3591   13.2420 H   0  0  0  0  0  0  0  0  0  0  0  0
  1  2  1  0
  1 41  1  0
  1 42  1  0
  1 43  1  0
  2  3  1  0
  3  4  2  0
  3 38  1  0
  4  5  1  0
  4 44  1  0
  5  6  2  0
  5 45  1  0
  6  7  1  0
  6 37  1  0
  7  8  1  0
  7 46  1  0
  8  9  2  0
  8 16  1  0
  9 10  1  0
 10 11  2  0
 10 17  1  0
 11 12  1  0
 11 47  1  0
 12 13  1  0
 12 16  1  0
 13 14  2  0
 13 48  1  0
 14 15  1  0
 14 49  1  0
 15 16  2  0
 17 18  2  0
 17 22  1  0
 18 19  1  0
 18 50  1  0
 19 20  2  0
 19 51  1  0
 20 21  1  0
 20 52  1  0
 21 22  2  0
 21 23  1  0
 22 53  1  0
 23 24  2  0
 23 25  1  0
 25 26  1  0
 25 54  1  0
 26 27  2  0
 26 31  1  0
 27 28  1  0
 27 55  1  0
 28 29  2  0
 28 56  1  0
 29 30  1  0
 29 32  1  0
 30 31  2  0
 30 57  1  0
 31 58  1  0
 32 36  2  0
 32 33  1  0
 33 34  1  0
 34 35  2  0
 35 36  1  0
 37 38  2  0
 37 59  1  0
 38 39  1  0
 39 40  1  0
 40 60  1  0
 40 61  1  0
 40 62  1  0
M  CHG  1  33  -1
M  END
$$$$
